14
	Energy:      17.9124197
C         -4.15162        3.84060       -0.00992
C         -3.02453        4.55770        0.06134
H         -4.15733        2.76057       -0.12264
H         -5.12093        4.33020        0.04427
C         -1.71172        3.95900       -0.00533
H         -3.10412        5.63791        0.17435
C         -0.58702        4.68401        0.06679
C          0.70060        3.97956       -0.01084
N          1.82863        4.58275        0.04859
H         -1.68304        2.87533       -0.11856
H         -0.61335        5.76356        0.17958
H          0.70475        2.88333       -0.12533
H          1.90142        5.59522        0.15409
H          2.70955        4.06914       -0.00782
