  14
  -248.96727286832171     
 C    -2.37941918     0.92059180     0.14839308
 C    -1.30109627     1.73459881     0.10291198
 H    -2.27531232    -0.15903372     0.16869604
 H    -3.39036060     1.31887844     0.16627336
 C    -1.48158828     3.16101495     0.07721112
 H    -0.30648166     1.29759535     0.08628368
 C    -0.52677374     4.14561737     0.03131240
 H    -2.51786082     3.49934847     0.09703797
 C     0.85846221     3.86925101     0.00105854
 H    -0.84325923     5.18577780     0.01740536
 N     1.77862056     4.80022397    -0.04278192
 H     1.22896628     2.84749889     0.01315750
 H     1.53761531     5.78980832    -0.05757150
 H     2.76908772     4.57090854    -0.06373758
