  14
  -248.97256755700332     
 C    -4.15307252     3.81856342    -0.01223529
 C    -3.04175254     4.58572072     0.06433058
 H    -4.09217956     2.73919320    -0.12511936
 H    -5.14620886     4.25236160     0.03620451
 C    -1.73738236     3.99469413    -0.00151041
 H    -3.12153304     5.66432546     0.17719477
 C    -0.56379975     4.69689109     0.06807691
 C     0.66058304     3.99963474    -0.00859991
 N     1.84043928     4.56698802     0.04688701
 H    -1.69242407     2.90943513    -0.11495515
 H    -0.56383961     5.77895911     0.18104952
 H     0.65963751     2.91664332    -0.12165827
 H     1.94663620     5.57405830     0.15168905
 H     2.69618628     4.02141176    -0.01278396
